% this file is to test the basic function of irish energy systems
clc
clear
yalmip('clear')
%% load data
mpc.bus = table2array(readtable('Irish energy system data.xlsx','sheet','bus','range','A2:M1197'));
mpc.gen = table2array(readtable('Irish energy system data.xlsx','sheet','gen','range','A2:U140'));
mpc.branch = table2array(readtable('Irish energy system data.xlsx','sheet','branch','range','A2:M1369'));
mpc.gencost = table2array(readtable('Irish energy system data.xlsx','sheet','gencost','range','A2:G140'));
mpc.Gbus = table2array(readtable('Irish energy system data.xlsx','sheet','Gbus','range','A2:F145'));
mpc.Gline = table2array(readtable('Irish energy system data.xlsx','sheet','Gline','range','A2:H145'));
mpc.Gsou = table2array(readtable('Irish energy system data.xlsx','sheet','Gsou','range','A2:D3'));
mpc.Gcost = table2array(readtable('Irish energy system data.xlsx','sheet','Gcost','range','A2:A3'));
mpc.GEcon = table2array(readtable('Irish energy system data.xlsx','sheet','GEcon','range','A2:D14'));
mpc.ptg = table2array(readtable('Irish energy system data.xlsx','sheet','ptg','range','A2:E8'));
mpc.version = '2';
mpc.baseMVA = 100;
%%
% case 1: electricity system optimal po
% electricityResults = runopf(mpc);
% gasResults = runopf_gas(mpc);

mpc.gencost(mpc.GEcon(:,3),:) = 0;
electricityGasResults = runopf_ge(mpc);